Version 4
SHEET 1 880 680
WIRE -16 144 -32 144
WIRE 80 144 64 144
WIRE 96 144 80 144
WIRE 160 144 144 144
WIRE 80 160 80 144
WIRE 144 192 144 176
WIRE 176 192 144 192
WIRE 192 192 176 192
WIRE 144 208 144 192
FLAG 144 96 0
FLAG 144 288 0
FLAG -32 224 0
FLAG 176 192 out
FLAG 80 240 0
FLAG 160 144 0
SYMBOL SLXM 96 144 R0
WINDOW 0 81 -31 Left 2
WINDOW 38 81 -17 Left 2
WINDOW 3 81 -2 Left 2
SYMATTR InstName U1
SYMATTR SpiceModel CMOS18N
SYMBOL SLV -32 144 M0
WINDOW 123 32 41 Invisible 2
WINDOW 39 32 57 Invisible 2
WINDOW 40 32 73 Invisible 2
SYMATTR InstName V1
SYMBOL SLR 64 144 R90
WINDOW 0 -8 40 VBottom 2
WINDOW 3 8 40 VTop 2
WINDOW 123 16 40 Invisible 2
WINDOW 39 16 55 Invisible 2
WINDOW 40 16 71 Invisible 2
SYMATTR InstName R1
SYMATTR Value {R_s}
SYMBOL SLC 144 208 R0
WINDOW 0 -37 39 Left 2
WINDOW 3 -38 55 Left 2
WINDOW 123 32 56 Invisible 2
SYMATTR InstName C1
SYMATTR Value {C_ell}
SYMBOL SLC 80 160 R0
WINDOW 0 -44 41 Left 2
WINDOW 3 -44 57 Left 2
WINDOW 123 32 56 Invisible 2
SYMATTR InstName C2
SYMATTR Value {C_phz}
TEXT -104 288 Left 2 !.lib C18.lib
TEXT -104 240 Left 2 !.source V1
TEXT -104 256 Left 2 !.detector V_out
TEXT -104 272 Left 2 !.lgref Gm_M1_XU1
