Version 4
SHEET 1 880 680
WIRE 160 32 96 32
WIRE 192 32 160 32
WIRE 192 48 192 32
WIRE -32 64 -96 64
WIRE 32 64 -32 64
WIRE 96 64 96 32
WIRE 32 112 32 64
WIRE 48 112 32 112
WIRE 128 112 96 112
WIRE 128 144 128 112
WIRE 192 144 192 128
FLAG 96 144 0
FLAG 128 144 0
FLAG 192 144 0
FLAG -96 144 0
FLAG 160 32 out
FLAG -32 144 0
SYMBOL SLR 192 48 R0
SYMATTR InstName R1
SYMATTR Value {R_L}
SYMBOL SLI -96 144 R180
WINDOW 0 41 24 Left 2
WINDOW 3 41 8 Left 2
WINDOW 123 41 -19 Left 2
WINDOW 39 41 -1 Left 2
WINDOW 40 41 -10 Left 2
SYMATTR InstName I1
SYMBOL SLR -32 64 R0
SYMATTR InstName R2
SYMATTR Value {R_s}
SYMBOL SLM 48 112 R0
SYMATTR InstName M1
SYMATTR SpiceModel myNMOS
TEXT -184 184 Left 2 !.model myNMOS  M gm={g_m} cgs={c_gs} cgb={c_gb} cdg={c_dg} cdb={c_db} go={g_o}
TEXT -184 200 Left 2 !.param R_s=10G R_L=10k
