Version 4
SHEET 1 880 680
WIRE 80 0 -48 0
WIRE 208 0 160 0
WIRE -112 64 -160 64
WIRE -48 64 -48 0
WIRE -48 64 -112 64
WIRE 32 64 -48 64
WIRE 208 64 208 0
WIRE 208 64 176 64
WIRE 272 64 208 64
WIRE 320 64 272 64
WIRE 352 64 320 64
FLAG 176 144 0
FLAG 352 144 0
FLAG -160 144 0
FLAG 320 64 out
FLAG -112 144 0
FLAG -48 144 0
FLAG 32 144 0
FLAG 208 144 0
FLAG 272 144 0
SYMBOL SLR 352 64 R0
SYMATTR InstName R1
SYMATTR Value {R_L}
SYMBOL SLI -160 144 R180
WINDOW 0 41 24 Left 2
WINDOW 3 41 8 Left 2
WINDOW 123 41 -19 Left 2
WINDOW 39 41 -1 Left 2
WINDOW 40 41 -10 Left 2
SYMATTR InstName I1
SYMBOL SLR -112 64 R0
SYMATTR InstName R2
SYMATTR Value {R_s}
SYMBOL SLG 112 48 R0
WINDOW 0 -60 -31 Left 2
WINDOW 3 -61 -15 Left 2
SYMATTR InstName G1
SYMATTR Value {g_m}
SYMBOL SLC -48 64 R0
WINDOW 0 23 33 Left 2
WINDOW 3 25 48 Left 2
SYMATTR InstName C1
SYMATTR Value {c_gs+c_gb}
SYMBOL SLC 208 64 R0
SYMATTR InstName C2
SYMATTR Value {c_db}
SYMBOL SLC 80 0 M90
WINDOW 0 -16 40 VBottom 2
WINDOW 3 16 40 VTop 2
SYMATTR InstName C3
SYMATTR Value {c_dg}
SYMBOL SLR 272 64 R0
SYMATTR InstName R3
SYMATTR Value {1/g_o}
TEXT 32 176 Left 2 !.param R_s=10G R_L=10k
