Version 4
SHEET 1 880 680
WIRE 80 64 16 64
WIRE 176 64 160 64
WIRE 192 64 176 64
FLAG 112 144 0
FLAG 16 144 0
FLAG 176 64 out
SYMBOL SLM_noise 160 48 R0
SYMATTR InstName U1
SYMATTR SpiceModel NM18_noise
SYMATTR Value ID={ID} IG=0 W={W} L={L}
SYMBOL SLV 16 64 R0
SYMATTR InstName V1
TEXT 0 168 Left 2 !.param W=220n L={W} ID=1u
TEXT 0 184 Left 2 !.include C18.lib
