Version 4
SHEET 1 880 680
WIRE 32 112 -16 112
WIRE 272 112 256 112
WIRE 304 112 272 112
WIRE -16 128 -16 112
WIRE 304 128 304 112
WIRE 112 192 96 192
WIRE 272 192 256 192
WIRE 272 208 272 192
WIRE 96 224 96 192
WIRE 304 224 304 208
WIRE 304 224 96 224
WIRE -16 240 -16 208
WIRE 304 240 304 224
WIRE 304 336 304 320
FLAG 272 208 0
FLAG 304 336 0
FLAG -16 240 0
FLAG 272 112 out
SYMBOL SLN_noise 192 96 R0
WINDOW 0 -63 -59 Left 2
WINDOW 38 -62 -42 Left 2
WINDOW 3 -62 -24 Left 2
SYMATTR InstName U1
SYMBOL SLR 304 128 R0
WINDOW 40 16 71 Invisible 2
SYMATTR InstName R1
SYMATTR Value {(A_v-1)*R_a}
SYMATTR Value2 noisetemp={T}
SYMBOL SLR 304 240 R0
WINDOW 40 16 71 Invisible 2
SYMATTR InstName R2
SYMATTR Value {R_a}
SYMATTR Value2 noisetemp={T}
SYMBOL SLR 112 112 R90
WINDOW 0 -8 40 VBottom 2
WINDOW 3 8 40 VTop 2
WINDOW 123 32 84 VLeft 2
WINDOW 39 46 84 VLeft 2
WINDOW 40 67 122 Invisible 2
SYMATTR InstName R3
SYMATTR Value {R_s}
SYMATTR Value2 noisetemp={T}
SYMBOL SLV -16 128 M0
SYMATTR InstName V1
TEXT 96 240 Left 2 !.param A_v=20 R_s=600
TEXT 96 256 Left 2 !.source V1
TEXT 96 272 Left 2 !.detector V_out
