Version 4
SHEET 1 880 680
WIRE 192 16 112 16
WIRE 288 16 272 16
WIRE 112 64 112 16
WIRE 128 64 112 64
WIRE 288 64 288 16
WIRE 288 64 208 64
WIRE 64 112 16 112
WIRE 112 112 112 64
WIRE 112 112 64 112
WIRE 128 112 112 112
WIRE 288 112 288 64
WIRE 288 112 272 112
WIRE 320 112 288 112
WIRE 336 112 320 112
WIRE 64 192 16 192
WIRE 128 192 64 192
WIRE 288 192 272 192
WIRE 16 208 16 192
WIRE 288 208 288 192
FLAG 16 208 0
FLAG 288 208 0
FLAG 320 112 out
SYMBOL SLI 16 192 R180
WINDOW 0 46 47 Left 2
WINDOW 3 48 34 Left 2
WINDOW 123 41 -19 Invisible 2
WINDOW 39 41 -1 Invisible 2
WINDOW 40 41 -10 Invisible 2
SYMATTR InstName I1
SYMBOL SLR 208 64 R90
WINDOW 0 -8 40 VBottom 2
WINDOW 3 8 40 VTop 2
WINDOW 123 16 40 Invisible 2
WINDOW 39 16 55 Invisible 2
WINDOW 40 16 71 Invisible 2
SYMATTR InstName R2
SYMATTR Value {R_f}
SYMBOL SLC 272 16 R90
WINDOW 0 -16 40 VBottom 2
WINDOW 3 16 40 VTop 2
WINDOW 123 32 56 Invisible 2
SYMATTR InstName C1
SYMATTR Value {C_f}
SYMBOL SLE 208 96 R0
WINDOW 0 -66 121 Left 2
WINDOW 3 -67 136 Left 2
SYMATTR InstName E1
SYMATTR Value {A/(s*(1+s*tau_2))}
SYMBOL SLC 64 112 R0
WINDOW 123 32 56 Invisible 2
SYMATTR InstName C2
SYMATTR Value {C_s}
TEXT -8 40 Left 2 !.source I1
TEXT -8 56 Left 2 !.detector V_out
TEXT -8 72 Left 2 !.lgref E1
